12

  H    1.2193786   -0.1652071    2.1600143
  C    0.6824786   -0.0924071    1.2087143
  C   -0.7075214   -0.0352071    1.1973143
  H   -1.2644214   -0.0630071    2.1393143
  C   -1.3898214    0.0571929   -0.0113857
  H   -2.4836214    0.1020929   -0.0203857
  C   -0.6824214    0.0924929   -1.2087857
  H   -1.2194214    0.1651929   -2.1598857
  C    0.7074786    0.0351929   -1.1972857
  H    1.2640786    0.0627929   -2.1394857
  C    1.3898786   -0.0572071    0.0114143
  H    2.4835786   -0.1022071    0.0205143
